208908
  -OEChem-03032506072D

 66 70  0     0  0  0  0  0  0999 V2000
   12.3832   -2.5389    0.0000 Cl  0  0  0  0  0  0  0  0  0  0  0  0
    2.9136   -2.6366    0.0000 S   0  0  0  0  0  0  0  0  0  0  0  0
   18.4623   -1.1091    0.0000 F   0  0  0  0  0  0  0  0  0  0  0  0
    7.1010    0.5210    0.0000 O   0  0  0  0  0  0  0  0  0  0  0  0
    2.0000   -2.2299    0.0000 O   0  0  0  0  0  0  0  0  0  0  0  0
    3.8271   -3.0434    0.0000 O   0  0  0  0  0  0  0  0  0  0  0  0
   14.1267   -1.5590    0.0000 O   0  0  0  0  0  0  0  0  0  0  0  0
    4.7215   -0.7050    0.0000 N   0  0  0  0  0  0  0  0  0  0  0  0
   10.6859    0.4809    0.0000 N   0  0  0  0  0  0  0  0  0  0  0  0
   10.6975    3.5502    0.0000 N   0  0  0  0  0  0  0  0  0  0  0  0
   11.6036    1.9947    0.0000 N   0  0  0  0  0  0  0  0  0  0  0  0
    4.3148   -1.6186    0.0000 C   0  0  0  0  0  0  0  0  0  0  0  0
    3.3203   -1.7231    0.0000 C   0  0  0  0  0  0  0  0  0  0  0  0
    5.7161   -0.6005    0.0000 C   0  0  0  0  0  0  0  0  0  0  0  0
    6.1228    0.3131    0.0000 C   0  0  0  0  0  0  0  0  0  0  0  0
    8.0715    2.0155    0.0000 C   0  0  0  0  0  0  0  0  0  0  0  0
    7.2055    1.5155    0.0000 C   0  0  0  0  0  0  0  0  0  0  0  0
    9.8036    2.0155    0.0000 C   0  0  0  0  0  0  0  0  0  0  0  0
    8.9375    1.5155    0.0000 C   0  0  0  0  0  0  0  0  0  0  0  0
    5.6228    1.1791    0.0000 C   0  0  0  0  0  0  0  0  0  0  0  0
    6.2919    1.9222    0.0000 C   0  0  0  0  0  0  0  0  0  0  0  0
    9.8036    3.0155    0.0000 C   0  0  0  0  0  0  0  0  0  0  0  0
    8.0715    3.0155    0.0000 C   0  0  0  0  0  0  0  0  0  0  0  0
   10.6975    1.4808    0.0000 C   0  0  0  0  0  0  0  0  0  0  0  0
    2.5068   -3.5502    0.0000 C   0  0  0  0  0  0  0  0  0  0  0  0
    8.9375    3.5155    0.0000 C   0  0  0  0  0  0  0  0  0  0  0  0
   11.5461   -0.0291    0.0000 C   0  0  0  0  0  0  0  0  0  0  0  0
   11.6036    3.0363    0.0000 C   0  0  0  0  0  0  0  0  0  0  0  0
   11.5346   -1.0290    0.0000 C   0  0  0  0  0  0  0  0  0  0  0  0
   12.4179    0.4609    0.0000 C   0  0  0  0  0  0  0  0  0  0  0  0
   13.2665   -1.0490    0.0000 C   0  0  0  0  0  0  0  0  0  0  0  0
   12.3947   -1.5390    0.0000 C   0  0  0  0  0  0  0  0  0  0  0  0
   13.2781   -0.0491    0.0000 C   0  0  0  0  0  0  0  0  0  0  0  0
   14.9984   -1.0691    0.0000 C   0  0  0  0  0  0  0  0  0  0  0  0
   15.8586   -1.5790    0.0000 C   0  0  0  0  0  0  0  0  0  0  0  0
   16.7304   -1.0891    0.0000 C   0  0  0  0  0  0  0  0  0  0  0  0
   15.8470   -2.5790    0.0000 C   0  0  0  0  0  0  0  0  0  0  0  0
   17.5905   -1.5991    0.0000 C   0  0  0  0  0  0  0  0  0  0  0  0
   16.7072   -3.0890    0.0000 C   0  0  0  0  0  0  0  0  0  0  0  0
   17.5790   -2.5990    0.0000 C   0  0  0  0  0  0  0  0  0  0  0  0
    4.2716   -2.2370    0.0000 H   0  0  0  0  0  0  0  0  0  0  0  0
    4.9164   -1.7685    0.0000 H   0  0  0  0  0  0  0  0  0  0  0  0
    3.3635   -1.1046    0.0000 H   0  0  0  0  0  0  0  0  0  0  0  0
    2.7187   -1.5731    0.0000 H   0  0  0  0  0  0  0  0  0  0  0  0
    5.6728   -1.2190    0.0000 H   0  0  0  0  0  0  0  0  0  0  0  0
    6.3177   -0.7505    0.0000 H   0  0  0  0  0  0  0  0  0  0  0  0
    4.3571   -0.2034    0.0000 H   0  0  0  0  0  0  0  0  0  0  0  0
    8.9375    0.8955    0.0000 H   0  0  0  0  0  0  0  0  0  0  0  0
    5.0062    1.2439    0.0000 H   0  0  0  0  0  0  0  0  0  0  0  0
    6.1630    2.5287    0.0000 H   0  0  0  0  0  0  0  0  0  0  0  0
    7.5346    3.3255    0.0000 H   0  0  0  0  0  0  0  0  0  0  0  0
    1.9404   -3.2980    0.0000 H   0  0  0  0  0  0  0  0  0  0  0  0
    2.2546   -4.1166    0.0000 H   0  0  0  0  0  0  0  0  0  0  0  0
    3.0732   -3.8023    0.0000 H   0  0  0  0  0  0  0  0  0  0  0  0
    8.9375    4.1355    0.0000 H   0  0  0  0  0  0  0  0  0  0  0  0
   10.1454    0.1771    0.0000 H   0  0  0  0  0  0  0  0  0  0  0  0
   10.9941   -1.3328    0.0000 H   0  0  0  0  0  0  0  0  0  0  0  0
   12.4250    1.0808    0.0000 H   0  0  0  0  0  0  0  0  0  0  0  0
   12.1393    3.3484    0.0000 H   0  0  0  0  0  0  0  0  0  0  0  0
   13.8185    0.2547    0.0000 H   0  0  0  0  0  0  0  0  0  0  0  0
   15.4024   -0.5988    0.0000 H   0  0  0  0  0  0  0  0  0  0  0  0
   14.6054   -0.5895    0.0000 H   0  0  0  0  0  0  0  0  0  0  0  0
   16.7375   -0.4691    0.0000 H   0  0  0  0  0  0  0  0  0  0  0  0
   15.3066   -2.8827    0.0000 H   0  0  0  0  0  0  0  0  0  0  0  0
   16.7001   -3.7089    0.0000 H   0  0  0  0  0  0  0  0  0  0  0  0
   18.1123   -2.9152    0.0000 H   0  0  0  0  0  0  0  0  0  0  0  0
  1 32  1  0  0  0  0
  2  5  2  0  0  0  0
  2  6  2  0  0  0  0
  2 13  1  0  0  0  0
  2 25  1  0  0  0  0
  3 38  1  0  0  0  0
  4 15  1  0  0  0  0
  4 17  1  0  0  0  0
  7 31  1  0  0  0  0
  7 34  1  0  0  0  0
  8 12  1  0  0  0  0
  8 14  1  0  0  0  0
  8 47  1  0  0  0  0
  9 24  1  0  0  0  0
  9 27  1  0  0  0  0
  9 56  1  0  0  0  0
 10 22  1  0  0  0  0
 10 28  2  0  0  0  0
 11 24  2  0  0  0  0
 11 28  1  0  0  0  0
 12 13  1  0  0  0  0
 12 41  1  0  0  0  0
 12 42  1  0  0  0  0
 13 43  1  0  0  0  0
 13 44  1  0  0  0  0
 14 15  1  0  0  0  0
 14 45  1  0  0  0  0
 14 46  1  0  0  0  0
 15 20  2  0  0  0  0
 16 17  1  0  0  0  0
 16 19  2  0  0  0  0
 16 23  1  0  0  0  0
 17 21  2  0  0  0  0
 18 19  1  0  0  0  0
 18 22  2  0  0  0  0
 18 24  1  0  0  0  0
 19 48  1  0  0  0  0
 20 21  1  0  0  0  0
 20 49  1  0  0  0  0
 21 50  1  0  0  0  0
 22 26  1  0  0  0  0
 23 26  2  0  0  0  0
 23 51  1  0  0  0  0
 25 52  1  0  0  0  0
 25 53  1  0  0  0  0
 25 54  1  0  0  0  0
 26 55  1  0  0  0  0
 27 29  2  0  0  0  0
 27 30  1  0  0  0  0
 28 59  1  0  0  0  0
 29 32  1  0  0  0  0
 29 57  1  0  0  0  0
 30 33  2  0  0  0  0
 30 58  1  0  0  0  0
 31 32  2  0  0  0  0
 31 33  1  0  0  0  0
 33 60  1  0  0  0  0
 34 35  1  0  0  0  0
 34 61  1  0  0  0  0
 34 62  1  0  0  0  0
 35 36  2  0  0  0  0
 35 37  1  0  0  0  0
 36 38  1  0  0  0  0
 36 63  1  0  0  0  0
 37 39  2  0  0  0  0
 37 64  1  0  0  0  0
 38 40  2  0  0  0  0
 39 40  1  0  0  0  0
 39 65  1  0  0  0  0
 40 66  1  0  0  0  0
M  END
> <PUBCHEM_COMPOUND_CID>
208908

> <PUBCHEM_COMPOUND_CANONICALIZED>
1

> <PUBCHEM_CACTVS_COMPLEXITY>
898

> <PUBCHEM_CACTVS_HBOND_ACCEPTOR>
9

> <PUBCHEM_CACTVS_HBOND_DONOR>
2

> <PUBCHEM_CACTVS_ROTATABLE_BOND>
11

> <PUBCHEM_CACTVS_SUBSKEYS>
AAADceB7uQBEAAAAAAAAAAAAAAAAASAAAAA8YMEAAAAAAACx/AAAHwYQAAAADA7l3i639vbIFEqoA6ZzZHDCiCk1J/AJ2KG+b9iOLvPF//uHPSjs0BPY6ae42fOeCEACAAICCAAQgAQABAQQAAAAAAAAAA==

> <PUBCHEM_IUPAC_OPENEYE_NAME>
N-[3-chloro-4-[(3-fluorophenyl)methoxy]phenyl]-6-[5-[(2-methylsulfonylethylamino)methyl]-2-furyl]quinazolin-4-amine

> <PUBCHEM_IUPAC_CAS_NAME>
N-[3-chloro-4-[(3-fluorophenyl)methoxy]phenyl]-6-[5-[(2-methylsulfonylethylamino)methyl]-2-furanyl]-4-quinazolinamine

> <PUBCHEM_IUPAC_NAME_MARKUP>
<I>N</I>-[3-chloro-4-[(3-fluorophenyl)methoxy]phenyl]-6-[5-[(2-methylsulfonylethylamino)methyl]furan-2-yl]quinazolin-4-amine

> <PUBCHEM_IUPAC_NAME>
N-[3-chloro-4-[(3-fluorophenyl)methoxy]phenyl]-6-[5-[(2-methylsulfonylethylamino)methyl]furan-2-yl]quinazolin-4-amine

> <PUBCHEM_IUPAC_SYSTEMATIC_NAME>
N-[3-chloranyl-4-[(3-fluorophenyl)methoxy]phenyl]-6-[5-[(2-methylsulfonylethylamino)methyl]furan-2-yl]quinazolin-4-amine

> <PUBCHEM_IUPAC_TRADITIONAL_NAME>
[5-[4-[3-chloro-4-(3-fluorobenzyl)oxy-anilino]quinazolin-6-yl]-2-furyl]methyl-(2-mesylethyl)amine

> <PUBCHEM_IUPAC_INCHI>
InChI=1S/C29H26ClFN4O4S/c1-40(36,37)12-11-32-16-23-7-10-27(39-23)20-5-8-26-24(14-20)29(34-18-33-26)35-22-6-9-28(25(30)15-22)38-17-19-3-2-4-21(31)13-19/h2-10,13-15,18,32H,11-12,16-17H2,1H3,(H,33,34,35)

> <PUBCHEM_IUPAC_INCHIKEY>
BCFGMOOMADDAQU-UHFFFAOYSA-N

> <PUBCHEM_XLOGP3_AA>
5.1

> <PUBCHEM_EXACT_MASS>
580.1347324

> <PUBCHEM_MOLECULAR_FORMULA>
C29H26ClFN4O4S

> <PUBCHEM_MOLECULAR_WEIGHT>
581.1

> <PUBCHEM_SMILES>
CS(=O)(=O)CCNCC1=CC=C(O1)C2=CC3=C(C=C2)N=CN=C3NC4=CC(=C(C=C4)OCC5=CC(=CC=C5)F)Cl

> <PUBCHEM_OPENEYE_CAN_SMILES>
CS(=O)(=O)CCNCC1=CC=C(O1)C2=CC3=C(C=C2)N=CN=C3NC4=CC(=C(C=C4)OCC5=CC(=CC=C5)F)Cl

> <PUBCHEM_OPENEYE_ISO_SMILES>
CS(=O)(=O)CCNCC1=CC=C(O1)C2=CC3=C(C=C2)N=CN=C3NC4=CC(=C(C=C4)OCC5=CC(=CC=C5)F)Cl

> <PUBCHEM_CACTVS_TPSA>
115

> <PUBCHEM_MONOISOTOPIC_WEIGHT>
580.1347324

> <PUBCHEM_TOTAL_CHARGE>
0

> <PUBCHEM_HEAVY_ATOM_COUNT>
40

> <PUBCHEM_ATOM_DEF_STEREO_COUNT>
0

> <PUBCHEM_ATOM_UDEF_STEREO_COUNT>
0

> <PUBCHEM_BOND_DEF_STEREO_COUNT>
0

> <PUBCHEM_BOND_UDEF_STEREO_COUNT>
0

> <PUBCHEM_ISOTOPIC_ATOM_COUNT>
0

> <PUBCHEM_COMPONENT_COUNT>
1

> <PUBCHEM_CACTVS_TAUTO_COUNT>
-1

> <PUBCHEM_COORDINATE_TYPE>
1
5
255

> <PUBCHEM_BONDANNOTATIONS>
10  22  8
10  28  8
11  24  8
11  28  8
15  20  8
16  19  8
16  23  8
17  21  8
18  19  8
18  22  8
18  24  8
20  21  8
22  26  8
23  26  8
27  29  8
27  30  8
29  32  8
30  33  8
31  32  8
31  33  8
35  36  8
35  37  8
36  38  8
37  39  8
38  40  8
39  40  8
4  15  8
4  17  8

$$$$